L6/1726523/Chaves.dss
! ==========================================================
! CHAVES — geradas de UNSEMT (Line com Switch=Y)
! ==========================================================
! 21 chave(s) omitida(s): os dois PACs fora da rede de MT deste alimentador, o que criaria ilha flutuante — ex.: 1787454989, 1414928952, 546179791
New Line.1924632068 Phases=1 Bus1=100_1707049687.2 Bus2=100_1707049688.2 Switch=Y r1=1e-4 x1=1e-4 r0=1e-4 x0=1e-4 normamps=9999
New Line.609765288 Phases=3 Bus1=100_609765300.1.2.3 Bus2=100_609765301.1.2.3 Switch=Y r1=1e-4 x1=1e-4 r0=1e-4 x0=1e-4 normamps=9999
New Line.1931007603 Phases=1 Bus1=node_2248235599.1 Bus2=node_2248235600.1 Switch=Y r1=1e-4 x1=1e-4 r0=1e-4 x0=1e-4 normamps=9999
New Line.1835002569 Phases=3 Bus1=node_2157297812.1.2.3 Bus2=node_430799504.1.2.3 Switch=Y r1=1e-4 x1=1e-4 r0=1e-4 x0=1e-4 normamps=9999
New Line.1953667004 Phases=1 Bus1=node_2270547171.1 Bus2=node_2270547172.1 Switch=Y r1=1e-4 x1=1e-4 r0=1e-4 x0=1e-4 normamps=9999
New Line.2404679311 Phases=3 Bus1=node_2509955527.1.2.3 Bus2=node_2509956511.1.2.3 Switch=Y r1=1e-4 x1=1e-4 r0=1e-4 x0=1e-4 normamps=9999
New Line.2264024482 Phases=1 Bus1=node_2542670951.2 Bus2=node_2542670952.2 Switch=Y r1=1e-4 x1=1e-4 r0=1e-4 x0=1e-4 normamps=9999
New Line.345615152 Phases=3 Bus1=node_539729316.1.2.3 Bus2=node_539729317.1.2.3 Switch=Y r1=1e-4 x1=1e-4 r0=1e-4 x0=1e-4 normamps=9999
New Line.1305088461 Phases=3 Bus1=100_1305088474.1.2.3 Bus2=segm_1305088411.1.2.3 Switch=Y r1=1e-4 x1=1e-4 r0=1e-4 x0=1e-4 normamps=9999
New Line.1414929150 Phases=3 Bus1=node_1686492084.1.2.3 Bus2=node_1712293121.1.2.3 Switch=Y r1=1e-4 x1=1e-4 r0=1e-4 x0=1e-4 normamps=9999
New Line.1414928945 Phases=3 Bus1=100_1414928958.1.2.3 Bus2=segm_1414928895.1.2.3 Switch=Y r1=1e-4 x1=1e-4 r0=1e-4 x0=1e-4 normamps=9999
New Line.1414929054 Phases=3 Bus1=node_1712293029.1.2.3 Bus2=node_1712293084.1.2.3 Switch=Y r1=1e-4 x1=1e-4 r0=1e-4 x0=1e-4 normamps=9999
New Line.1305088442 Phases=3 Bus1=100_1305088473.1.2.3 Bus2=100_1305088474.1.2.3 Switch=Y r1=1e-4 x1=1e-4 r0=1e-4 x0=1e-4 normamps=9999
New Line.1305088417 Phases=3 Bus1=100_1305088473.1.2.3 Bus2=segm_1305088405.1.2.3 Switch=Y r1=1e-4 x1=1e-4 r0=1e-4 x0=1e-4 normamps=9999
New Line.1414928901 Phases=3 Bus1=segm_1414928889.1.2.3 Bus2=100_1414928957.1.2.3 Switch=Y r1=1e-4 x1=1e-4 r0=1e-4 x0=1e-4 normamps=9999
New Line.1391493238 Phases=3 Bus1=node_1686492267.1.2.3 Bus2=node_1686492268.1.2.3 Switch=Y r1=1e-4 x1=1e-4 r0=1e-4 x0=1e-4 normamps=9999
New Line.1451805866 Phases=1 Bus1=node_1748513018.3 Bus2=node_1748513019.3 Switch=Y r1=1e-4 x1=1e-4 r0=1e-4 x0=1e-4 normamps=9999
New Line.1473773874 Phases=1 Bus1=node_1780863837.1 Bus2=node_1780863838.1 Switch=Y r1=1e-4 x1=1e-4 r0=1e-4 x0=1e-4 normamps=9999
New Line.1452029301 Phases=1 Bus1=node_1719953920.2 Bus2=node_1719953921.2 Switch=Y r1=1e-4 x1=1e-4 r0=1e-4 x0=1e-4 normamps=9999
New Line.1449839288 Phases=3 Bus1=100_1449839300.1.2.3 Bus2=segm_1449839238.1.2.3 Switch=Y r1=1e-4 x1=1e-4 r0=1e-4 x0=1e-4 normamps=9999
New Line.1459187525 Phases=1 Bus1=node_1703150692.3 Bus2=node_1756436345.3 Switch=Y r1=1e-4 x1=1e-4 r0=1e-4 x0=1e-4 normamps=9999
New Line.1464490520 Phases=1 Bus1=node_1762047705.1 Bus2=node_1762047706.1 Switch=Y r1=1e-4 x1=1e-4 r0=1e-4 x0=1e-4 normamps=9999
New Line.1459187981 Phases=1 Bus1=node_1756436851.3 Bus2=node_1756436850.3 Switch=Y r1=1e-4 x1=1e-4 r0=1e-4 x0=1e-4 normamps=9999
New Line.1459187533 Phases=1 Bus1=node_1756436366.3 Bus2=node_1756436367.3 Switch=Y r1=1e-4 x1=1e-4 r0=1e-4 x0=1e-4 normamps=9999
New Line.1441027952 Phases=1 Bus1=node_1737322615.2 Bus2=node_1737322763.2 Switch=Y r1=1e-4 x1=1e-4 r0=1e-4 x0=1e-4 normamps=9999
New Line.1452029325 Phases=1 Bus1=node_1719953976.2 Bus2=node_1719953977.2 Switch=Y r1=1e-4 x1=1e-4 r0=1e-4 x0=1e-4 normamps=9999
New Line.1322711689 Phases=1 Bus1=100_1322711719.1 Bus2=100_1322711720.1 Switch=Y r1=1e-4 x1=1e-4 r0=1e-4 x0=1e-4 normamps=9999
New Line.1490413281 Phases=1 Bus1=node_1797924114.2 Bus2=node_1797924269.2 Switch=Y r1=1e-4 x1=1e-4 r0=1e-4 x0=1e-4 normamps=9999
New Line.1490413275 Phases=1 Bus1=node_1797924086.2 Bus2=node_1797924259.2 Switch=Y r1=1e-4 x1=1e-4 r0=1e-4 x0=1e-4 normamps=9999
New Line.1544367182 Phases=1 Bus1=100_1544367201.3 Bus2=100_1544367200.3 Switch=Y r1=1e-4 x1=1e-4 r0=1e-4 x0=1e-4 normamps=9999
New Line.345472731 Phases=1 Bus1=node_539451093.3 Bus2=node_539451094.3 Switch=Y r1=1e-4 x1=1e-4 r0=1e-4 x0=1e-4 normamps=9999
New Line.1552912251 Phases=1 Bus1=100_1552912269.3 Bus2=100_1552912270.3 Switch=Y r1=1e-4 x1=1e-4 r0=1e-4 x0=1e-4 normamps=9999
New Line.1544504591 Phases=1 Bus1=100_1544504609.1 Bus2=100_1544504610.1 Switch=Y r1=1e-4 x1=1e-4 r0=1e-4 x0=1e-4 normamps=9999
New Line.1499091283 Phases=1 Bus1=100_1499091314.1 Bus2=100_1499091315.1 Switch=Y r1=1e-4 x1=1e-4 r0=1e-4 x0=1e-4 normamps=9999
New Line.1489572089 Phases=1 Bus1=100_1489572119.3 Bus2=100_1489572120.3 Switch=Y r1=1e-4 x1=1e-4 r0=1e-4 x0=1e-4 normamps=9999
New Line.345612372 Phases=1 Bus1=node_1905789127.3 Bus2=node_1905789128.3 Switch=Y r1=1e-4 x1=1e-4 r0=1e-4 x0=1e-4 normamps=9999
New Line.1585431077 Phases=1 Bus1=node_1905789951.3 Bus2=node_1905789952.3 Switch=Y r1=1e-4 x1=1e-4 r0=1e-4 x0=1e-4 normamps=9999
New Line.1718634922 Phases=1 Bus1=node_2044648344.3 Bus2=node_2044648409.3 Switch=Y r1=1e-4 x1=1e-4 r0=1e-4 x0=1e-4 normamps=9999
New Line.1686232330 Phases=1 Bus1=node_2011657415.1 Bus2=node_2011657416.1 Switch=Y r1=1e-4 x1=1e-4 r0=1e-4 x0=1e-4 normamps=9999
New Line.352742500 Phases=1 Bus1=node_1949975062.1 Bus2=node_1949975063.1 Switch=Y r1=1e-4 x1=1e-4 r0=1e-4 x0=1e-4 normamps=9999
New Line.352742270 Phases=1 Bus1=node_1949974900.1 Bus2=node_1949974901.1 Switch=Y r1=1e-4 x1=1e-4 r0=1e-4 x0=1e-4 normamps=9999
New Line.345651395 Phases=3 Bus1=node_539821003.1.2.3 Bus2=node_539821004.1.2.3 Switch=Y r1=1e-4 x1=1e-4 r0=1e-4 x0=1e-4 normamps=9999
New Line.345670365 Phases=1 Bus1=node_539889956.3 Bus2=node_539889957.3 Switch=Y r1=1e-4 x1=1e-4 r0=1e-4 x0=1e-4 normamps=9999
New Line.345517803 Phases=1 Bus1=node_539469043.3 Bus2=node_539469044.3 Switch=Y r1=1e-4 x1=1e-4 r0=1e-4 x0=1e-4 normamps=9999
New Line.345407045 Phases=1 Bus1=node_539387235.2 Bus2=node_539387236.2 Switch=Y r1=1e-4 x1=1e-4 r0=1e-4 x0=1e-4 normamps=9999
New Line.345636563 Phases=1 Bus1=node_539798835.2 Bus2=node_539798836.2 Switch=Y r1=1e-4 x1=1e-4 r0=1e-4 x0=1e-4 normamps=9999
New Line.345533687 Phases=1 Bus1=node_539549955.3 Bus2=node_539549956.3 Switch=Y r1=1e-4 x1=1e-4 r0=1e-4 x0=1e-4 normamps=9999
New Line.345636558 Phases=1 Bus1=node_539798820.2 Bus2=node_539798821.2 Switch=Y r1=1e-4 x1=1e-4 r0=1e-4 x0=1e-4 normamps=9999
New Line.2413730422 Phases=1 Bus1=node_2474319435.2 Bus2=node_2474319466.2 Switch=Y r1=1e-4 x1=1e-4 r0=1e-4 x0=1e-4 normamps=9999
New Line.345085283 Phases=3 Bus1=node_539248294.1.2.3 Bus2=node_539248295.1.2.3 Switch=Y r1=1e-4 x1=1e-4 r0=1e-4 x0=1e-4 normamps=9999
New Line.2529385237 Phases=3 Bus1=node_2682170056.1.2.3 Bus2=node_2682170256.1.2.3 Switch=Y r1=1e-4 x1=1e-4 r0=1e-4 x0=1e-4 normamps=9999
New Line.345533754 Phases=1 Bus1=node_539550132.3 Bus2=node_539550133.3 Switch=Y r1=1e-4 x1=1e-4 r0=1e-4 x0=1e-4 normamps=9999
New Line.345575221 Phases=3 Bus1=node_539617269.1.2.3 Bus2=node_539617270.1.2.3 Switch=Y r1=1e-4 x1=1e-4 r0=1e-4 x0=1e-4 normamps=9999
New Line.345517307 Phases=1 Bus1=node_539454743.3 Bus2=node_539454744.3 Switch=Y r1=1e-4 x1=1e-4 r0=1e-4 x0=1e-4 normamps=9999
New Line.345612010 Phases=1 Bus1=node_539709768.3 Bus2=node_539709769.3 Switch=Y r1=1e-4 x1=1e-4 r0=1e-4 x0=1e-4 normamps=9999
New Line.345533731 Phases=1 Bus1=node_539550075.3 Bus2=node_539550076.3 Switch=Y r1=1e-4 x1=1e-4 r0=1e-4 x0=1e-4 normamps=9999
New Line.345636802 Phases=1 Bus1=node_539799528.1 Bus2=node_539799529.1 Switch=Y r1=1e-4 x1=1e-4 r0=1e-4 x0=1e-4 normamps=9999
New Line.345407250 Phases=3 Bus1=node_539387774.1.2.3 Bus2=node_539387775.1.2.3 Switch=Y r1=1e-4 x1=1e-4 r0=1e-4 x0=1e-4 normamps=9999
New Line.345517696 Phases=1 Bus1=node_539468722.1 Bus2=node_539468723.1 Switch=Y r1=1e-4 x1=1e-4 r0=1e-4 x0=1e-4 normamps=9999
New Line.345612176 Phases=1 Bus1=node_539710180.3 Bus2=node_539710181.3 Switch=Y r1=1e-4 x1=1e-4 r0=1e-4 x0=1e-4 normamps=9999
New Line.345407148 Phases=1 Bus1=node_539387522.3 Bus2=node_539387523.3 Switch=Y r1=1e-4 x1=1e-4 r0=1e-4 x0=1e-4 normamps=9999
New Line.345407261 Phases=1 Bus1=node_539387797.1 Bus2=node_539387798.1 Switch=Y r1=1e-4 x1=1e-4 r0=1e-4 x0=1e-4 normamps=9999
New Line.345575327 Phases=1 Bus1=node_539617537.2 Bus2=node_539617538.2 Switch=Y r1=1e-4 x1=1e-4 r0=1e-4 x0=1e-4 normamps=9999
New Line.345533762 Phases=1 Bus1=node_539550158.1 Bus2=node_539550159.1 Switch=Y r1=1e-4 x1=1e-4 r0=1e-4 x0=1e-4 normamps=9999
New Line.345552347 Phases=3 Bus1=node_539553694.1.2.3 Bus2=node_539553695.1.2.3 Switch=Y r1=1e-4 x1=1e-4 r0=1e-4 x0=1e-4 normamps=9999
New Line.345533717 Phases=1 Bus1=node_539550033.2 Bus2=node_539550034.2 Switch=Y r1=1e-4 x1=1e-4 r0=1e-4 x0=1e-4 normamps=9999
New Line.345517493 Phases=1 Bus1=node_539468149.3 Bus2=node_539468150.3 Switch=Y r1=1e-4 x1=1e-4 r0=1e-4 x0=1e-4 normamps=9999
New Line.345407240 Phases=3 Bus1=node_435876344.1.2.3 Bus2=node_763873627.1.2.3 Switch=Y r1=1e-4 x1=1e-4 r0=1e-4 x0=1e-4 normamps=9999
New Line.345612115 Phases=3 Bus1=node_539710035.1.2.3 Bus2=node_539710036.1.2.3 Switch=Y r1=1e-4 x1=1e-4 r0=1e-4 x0=1e-4 normamps=9999
New Line.345408727 Phases=3 Bus1=node_539408867.1.2.3 Bus2=node_539408868.1.2.3 Switch=Y r1=1e-4 x1=1e-4 r0=1e-4 x0=1e-4 normamps=9999
New Line.345670316 Phases=1 Bus1=node_539889819.3 Bus2=node_539889820.3 Switch=Y r1=1e-4 x1=1e-4 r0=1e-4 x0=1e-4 normamps=9999
New Line.345575320 Phases=1 Bus1=node_539617514.2 Bus2=node_539617515.2 Switch=Y r1=1e-4 x1=1e-4 r0=1e-4 x0=1e-4 normamps=9999
New Line.345670299 Phases=3 Bus1=node_1648759108.1.2.3 Bus2=node_1648759109.1.2.3 Switch=Y r1=1e-4 x1=1e-4 r0=1e-4 x0=1e-4 normamps=9999
New Line.345612126 Phases=1 Bus1=node_539710058.3 Bus2=node_539710059.3 Switch=Y r1=1e-4 x1=1e-4 r0=1e-4 x0=1e-4 normamps=9999
New Line.345552324 Phases=3 Bus1=node_539553655.1.2.3 Bus2=node_539553656.1.2.3 Switch=Y r1=1e-4 x1=1e-4 r0=1e-4 x0=1e-4 normamps=9999
New Line.345289922 Phases=3 Bus1=node_539311389.1.2.3 Bus2=node_539311390.1.2.3 Switch=Y r1=1e-4 x1=1e-4 r0=1e-4 x0=1e-4 normamps=9999
New Line.2316699054 Phases=1 Bus1=node_2586113512.3 Bus2=node_2586113513.3 Switch=Y r1=1e-4 x1=1e-4 r0=1e-4 x0=1e-4 normamps=9999
New Line.345533447 Phases=3 Bus1=node_539532155.1.2.3 Bus2=node_539532156.1.2.3 Switch=Y r1=1e-4 x1=1e-4 r0=1e-4 x0=1e-4 normamps=9999
New Line.345670310 Phases=1 Bus1=node_539889801.2 Bus2=node_539889802.2 Switch=Y r1=1e-4 x1=1e-4 r0=1e-4 x0=1e-4 normamps=9999
New Line.345574742 Phases=1 Bus1=node_539615934.3 Bus2=node_539615935.3 Switch=Y r1=1e-4 x1=1e-4 r0=1e-4 x0=1e-4 normamps=9999
New Line.345612016 Phases=1 Bus1=node_539709786.1 Bus2=node_539709787.1 Switch=Y r1=1e-4 x1=1e-4 r0=1e-4 x0=1e-4 normamps=9999
New Line.345611734 Phases=1 Bus1=node_539708976.2 Bus2=node_539708977.2 Switch=Y r1=1e-4 x1=1e-4 r0=1e-4 x0=1e-4 normamps=9999
New Line.345533339 Phases=1 Bus1=node_539531841.1 Bus2=node_539531842.1 Switch=Y r1=1e-4 x1=1e-4 r0=1e-4 x0=1e-4 normamps=9999
New Line.345575310 Phases=3 Bus1=node_539617496.1.2.3 Bus2=node_539617497.1.2.3 Switch=Y r1=1e-4 x1=1e-4 r0=1e-4 x0=1e-4 normamps=9999
New Line.345636817 Phases=3 Bus1=node_539799575.1.2.3 Bus2=node_539799576.1.2.3 Switch=Y r1=1e-4 x1=1e-4 r0=1e-4 x0=1e-4 normamps=9999
New Line.345470590 Phases=3 Bus1=node_539411973.1.2.3 Bus2=node_539411974.1.2.3 Switch=Y r1=1e-4 x1=1e-4 r0=1e-4 x0=1e-4 normamps=9999
New Line.345650834 Phases=1 Bus1=node_539802494.3 Bus2=node_539802495.3 Switch=Y r1=1e-4 x1=1e-4 r0=1e-4 x0=1e-4 normamps=9999
New Line.345650820 Phases=1 Bus1=node_539802452.3 Bus2=node_539802453.3 Switch=Y r1=1e-4 x1=1e-4 r0=1e-4 x0=1e-4 normamps=9999
New Line.345612873 Phases=1 Bus1=node_539711799.3 Bus2=node_539711800.3 Switch=Y r1=1e-4 x1=1e-4 r0=1e-4 x0=1e-4 normamps=9999
New Line.345553288 Phases=3 Bus1=node_539572588.1.2.3 Bus2=node_539572589.1.2.3 Switch=Y r1=1e-4 x1=1e-4 r0=1e-4 x0=1e-4 normamps=9999
New Line.345084762 Phases=1 Bus1=node_539246955.3 Bus2=node_539246956.3 Switch=Y r1=1e-4 x1=1e-4 r0=1e-4 x0=1e-4 normamps=9999
New Line.345085134 Phases=1 Bus1=node_801715580.2 Bus2=node_801715581.2 Switch=Y r1=1e-4 x1=1e-4 r0=1e-4 x0=1e-4 normamps=9999
New Line.345289443 Phases=1 Bus1=node_539310220.1 Bus2=node_539310221.1 Switch=Y r1=1e-4 x1=1e-4 r0=1e-4 x0=1e-4 normamps=9999
New Line.345613386 Phases=1 Bus1=node_539726072.2 Bus2=node_539726073.2 Switch=Y r1=1e-4 x1=1e-4 r0=1e-4 x0=1e-4 normamps=9999
New Line.345084809 Phases=1 Bus1=node_539247096.3 Bus2=node_539247097.3 Switch=Y r1=1e-4 x1=1e-4 r0=1e-4 x0=1e-4 normamps=9999
New Line.345576358 Phases=1 Bus1=node_539637355.3 Bus2=node_539637356.3 Switch=Y r1=1e-4 x1=1e-4 r0=1e-4 x0=1e-4 normamps=9999
New Line.345551507 Phases=1 Bus1=node_539551509.3 Bus2=node_539551510.3 Switch=Y r1=1e-4 x1=1e-4 r0=1e-4 x0=1e-4 normamps=9999
New Line.345650873 Phases=1 Bus1=node_539802611.2 Bus2=node_539802612.2 Switch=Y r1=1e-4 x1=1e-4 r0=1e-4 x0=1e-4 normamps=9999
New Line.345084422 Phases=3 Bus1=node_539246056.1.2.3 Bus2=node_539246055.1.2.3 Switch=Y r1=1e-4 x1=1e-4 r0=1e-4 x0=1e-4 normamps=9999
New Line.345084984 Phases=1 Bus1=node_539247569.2 Bus2=node_539247570.2 Switch=Y r1=1e-4 x1=1e-4 r0=1e-4 x0=1e-4 normamps=9999
New Line.345553319 Phases=3 Bus1=node_539572645.1.2.3 Bus2=node_539572646.1.2.3 Switch=Y r1=1e-4 x1=1e-4 r0=1e-4 x0=1e-4 normamps=9999
New Line.345613129 Phases=1 Bus1=node_539712532.1 Bus2=node_539712531.1 Switch=Y r1=1e-4 x1=1e-4 r0=1e-4 x0=1e-4 normamps=9999
New Line.345084802 Phases=1 Bus1=node_539247075.3 Bus2=node_539247076.3 Switch=Y r1=1e-4 x1=1e-4 r0=1e-4 x0=1e-4 normamps=9999
New Line.345552178 Phases=1 Bus1=node_539553325.3 Bus2=node_539553326.3 Switch=Y r1=1e-4 x1=1e-4 r0=1e-4 x0=1e-4 normamps=9999
New Line.345289449 Phases=1 Bus1=node_539310238.3 Bus2=node_539310239.3 Switch=Y r1=1e-4 x1=1e-4 r0=1e-4 x0=1e-4 normamps=9999
New Line.345289455 Phases=1 Bus1=node_539310256.3 Bus2=node_539310257.3 Switch=Y r1=1e-4 x1=1e-4 r0=1e-4 x0=1e-4 normamps=9999
New Line.345613334 Phases=3 Bus1=node_539725940.1.2.3 Bus2=node_539725941.1.2.3 Switch=Y r1=1e-4 x1=1e-4 r0=1e-4 x0=1e-4 normamps=9999
New Line.345650437 Phases=3 Bus1=node_539801459.1.2.3 Bus2=node_539801460.1.2.3 Switch=Y r1=1e-4 x1=1e-4 r0=1e-4 x0=1e-4 normamps=9999
New Line.345408472 Phases=1 Bus1=node_539408288.2 Bus2=node_539408289.2 Switch=Y r1=1e-4 x1=1e-4 r0=1e-4 x0=1e-4 normamps=9999
New Line.345177213 Phases=1 Bus1=node_539300154.2 Bus2=node_539300155.2 Switch=Y r1=1e-4 x1=1e-4 r0=1e-4 x0=1e-4 normamps=9999
New Line.345084196 Phases=1 Bus1=node_539245435.2 Bus2=node_539245436.2 Switch=Y r1=1e-4 x1=1e-4 r0=1e-4 x0=1e-4 normamps=9999
New Line.345650165 Phases=1 Bus1=node_539800775.2 Bus2=node_539800776.2 Switch=Y r1=1e-4 x1=1e-4 r0=1e-4 x0=1e-4 normamps=9999
New Line.345177207 Phases=1 Bus1=node_539300136.2 Bus2=node_539300137.2 Switch=Y r1=1e-4 x1=1e-4 r0=1e-4 x0=1e-4 normamps=9999
New Line.345650269 Phases=1 Bus1=node_539801063.2 Bus2=node_539801064.2 Switch=Y r1=1e-4 x1=1e-4 r0=1e-4 x0=1e-4 normamps=9999
New Line.345613412 Phases=1 Bus1=node_539726150.2 Bus2=node_539726151.2 Switch=Y r1=1e-4 x1=1e-4 r0=1e-4 x0=1e-4 normamps=9999
New Line.345084129 Phases=1 Bus1=node_539245246.2 Bus2=node_539245247.2 Switch=Y r1=1e-4 x1=1e-4 r0=1e-4 x0=1e-4 normamps=9999
New Line.345407633 Phases=1 Bus1=node_539388787.2 Bus2=node_539388788.2 Switch=Y r1=1e-4 x1=1e-4 r0=1e-4 x0=1e-4 normamps=9999
New Line.345085090 Phases=1 Bus1=node_539247865.2 Bus2=node_539247866.2 Switch=Y r1=1e-4 x1=1e-4 r0=1e-4 x0=1e-4 normamps=9999
New Line.345612766 Phases=1 Bus1=node_539711542.2 Bus2=node_539711543.2 Switch=Y r1=1e-4 x1=1e-4 r0=1e-4 x0=1e-4 normamps=9999
New Line.345518884 Phases=1 Bus1=node_539471893.3 Bus2=node_539471894.3 Switch=Y r1=1e-4 x1=1e-4 r0=1e-4 x0=1e-4 normamps=9999
New Line.345407581 Phases=1 Bus1=node_539388631.2 Bus2=node_539388632.2 Switch=Y r1=1e-4 x1=1e-4 r0=1e-4 x0=1e-4 normamps=9999
New Line.345614578 Phases=3 Bus1=node_539728312.1.2.3 Bus2=node_539728313.1.2.3 Switch=Y r1=1e-4 x1=1e-4 r0=1e-4 x0=1e-4 normamps=9999
New Line.345470567 Phases=3 Bus1=node_539411934.1.2.3 Bus2=node_539411935.1.2.3 Switch=Y r1=1e-4 x1=1e-4 r0=1e-4 x0=1e-4 normamps=9999
New Line.345553298 Phases=3 Bus1=node_539572606.1.2.3 Bus2=node_539572607.1.2.3 Switch=Y r1=1e-4 x1=1e-4 r0=1e-4 x0=1e-4 normamps=9999
New Line.353382415 Phases=1 Bus1=node_1949974863.1 Bus2=node_1949974805.1 Switch=Y r1=1e-4 x1=1e-4 r0=1e-4 x0=1e-4 normamps=9999
New Line.1717647304 Phases=1 Bus1=node_2043712325.3 Bus2=node_2043712326.3 Switch=Y r1=1e-4 x1=1e-4 r0=1e-4 x0=1e-4 normamps=9999
New Line.1711442444 Phases=1 Bus1=node_2037541766.3 Bus2=node_2037541767.3 Switch=Y r1=1e-4 x1=1e-4 r0=1e-4 x0=1e-4 normamps=9999
New Line.1884430534 Phases=1 Bus1=node_2205969605.3 Bus2=node_2205969606.3 Switch=Y r1=1e-4 x1=1e-4 r0=1e-4 x0=1e-4 normamps=9999
New Line.1838755268 Phases=1 Bus1=node_2161028682.2 Bus2=node_2161028723.2 Switch=Y r1=1e-4 x1=1e-4 r0=1e-4 x0=1e-4 normamps=9999
New Line.345594978 Phases=3 Bus1=node_539666057.1.2.3 Bus2=node_539666056.1.2.3 Switch=Y r1=1e-4 x1=1e-4 r0=1e-4 x0=1e-4 normamps=9999
New Line.345518162 Phases=1 Bus1=node_539469921.2 Bus2=node_539469922.2 Switch=Y r1=1e-4 x1=1e-4 r0=1e-4 x0=1e-4 normamps=9999
New Line.345595063 Phases=1 Bus1=node_539666199.2 Bus2=node_539666200.2 Switch=Y r1=1e-4 x1=1e-4 r0=1e-4 x0=1e-4 normamps=9999
New Line.345613234 Phases=1 Bus1=node_539712834.2 Bus2=node_539712835.2 Switch=Y r1=1e-4 x1=1e-4 r0=1e-4 x0=1e-4 normamps=9999
New Line.345650951 Phases=1 Bus1=node_539802833.2 Bus2=node_539802834.2 Switch=Y r1=1e-4 x1=1e-4 r0=1e-4 x0=1e-4 normamps=9999
New Line.345177398 Phases=3 Bus1=node_2572304541.1.2.3 Bus2=node_2572304542.1.2.3 Switch=Y r1=1e-4 x1=1e-4 r0=1e-4 x0=1e-4 normamps=9999
New Line.345651198 Phases=1 Bus1=node_539820582.1 Bus2=node_539820583.1 Switch=Y r1=1e-4 x1=1e-4 r0=1e-4 x0=1e-4 normamps=9999
New Line.345084768 Phases=1 Bus1=node_539246973.1 Bus2=node_539246974.1 Switch=Y r1=1e-4 x1=1e-4 r0=1e-4 x0=1e-4 normamps=9999
New Line.345084189 Phases=1 Bus1=node_539245414.3 Bus2=node_539245415.3 Switch=Y r1=1e-4 x1=1e-4 r0=1e-4 x0=1e-4 normamps=9999
New Line.345650465 Phases=3 Bus1=node_539801531.1.2.3 Bus2=node_539801532.1.2.3 Switch=Y r1=1e-4 x1=1e-4 r0=1e-4 x0=1e-4 normamps=9999
New Line.345613317 Phases=1 Bus1=node_539725901.2 Bus2=node_539725902.2 Switch=Y r1=1e-4 x1=1e-4 r0=1e-4 x0=1e-4 normamps=9999
New Line.345289436 Phases=1 Bus1=node_539310199.3 Bus2=node_539310200.3 Switch=Y r1=1e-4 x1=1e-4 r0=1e-4 x0=1e-4 normamps=9999
New Line.345636770 Phases=1 Bus1=node_539799432.2 Bus2=node_539799433.2 Switch=Y r1=1e-4 x1=1e-4 r0=1e-4 x0=1e-4 normamps=9999
New Line.2316699042 Phases=1 Bus1=node_2586113479.3 Bus2=node_2586113480.3 Switch=Y r1=1e-4 x1=1e-4 r0=1e-4 x0=1e-4 normamps=9999
New Line.345517750 Phases=1 Bus1=node_539468884.1 Bus2=node_539468885.1 Switch=Y r1=1e-4 x1=1e-4 r0=1e-4 x0=1e-4 normamps=9999
New Line.345176708 Phases=3 Bus1=node_539298871.1.2.3 Bus2=node_539298872.1.2.3 Switch=Y r1=1e-4 x1=1e-4 r0=1e-4 x0=1e-4 normamps=9999
New Line.345517788 Phases=1 Bus1=node_539468998.2 Bus2=node_539468999.2 Switch=Y r1=1e-4 x1=1e-4 r0=1e-4 x0=1e-4 normamps=9999
New Line.345670094 Phases=1 Bus1=node_539889189.2 Bus2=node_539889190.2 Switch=Y r1=1e-4 x1=1e-4 r0=1e-4 x0=1e-4 normamps=9999
New Line.345517769 Phases=1 Bus1=node_539468941.2 Bus2=node_539468942.2 Switch=Y r1=1e-4 x1=1e-4 r0=1e-4 x0=1e-4 normamps=9999
New Line.345670347 Phases=1 Bus1=node_539889902.2 Bus2=node_539889903.2 Switch=Y r1=1e-4 x1=1e-4 r0=1e-4 x0=1e-4 normamps=9999
New Line.345670322 Phases=3 Bus1=node_539889837.1.2.3 Bus2=node_539889838.1.2.3 Switch=Y r1=1e-4 x1=1e-4 r0=1e-4 x0=1e-4 normamps=9999
New Line.345533737 Phases=3 Bus1=node_539550093.1.2.3 Bus2=node_539550094.1.2.3 Switch=Y r1=1e-4 x1=1e-4 r0=1e-4 x0=1e-4 normamps=9999
New Line.345407207 Phases=3 Bus1=node_539387681.1.2.3 Bus2=node_539387682.1.2.3 Switch=Y r1=1e-4 x1=1e-4 r0=1e-4 x0=1e-4 normamps=9999
New Line.345670340 Phases=1 Bus1=node_539889881.1 Bus2=node_539889882.1 Switch=Y r1=1e-4 x1=1e-4 r0=1e-4 x0=1e-4 normamps=9999
New Line.345533724 Phases=1 Bus1=node_539550054.1 Bus2=node_539550055.1 Switch=Y r1=1e-4 x1=1e-4 r0=1e-4 x0=1e-4 normamps=9999
New Line.2182554421 Phases=1 Bus1=node_2489167662.2 Bus2=node_2489167663.2 Switch=Y r1=1e-4 x1=1e-4 r0=1e-4 x0=1e-4 normamps=9999
New Line.345519296 Phases=3 Bus1=node_539485863.1.2.3 Bus2=node_539485864.1.2.3 Switch=Y r1=1e-4 x1=1e-4 r0=1e-4 x0=1e-4 normamps=9999
New Line.345651385 Phases=3 Bus1=node_539820985.1.2.3 Bus2=node_539820986.1.2.3 Switch=Y r1=1e-4 x1=1e-4 r0=1e-4 x0=1e-4 normamps=9999
New Line.2294602003 Phases=1 Bus1=node_2550331260.3 Bus2=node_2550331261.3 Switch=Y r1=1e-4 x1=1e-4 r0=1e-4 x0=1e-4 normamps=9999
New Line.345612133 Phases=1 Bus1=node_539710079.3 Bus2=node_539710080.3 Switch=Y r1=1e-4 x1=1e-4 r0=1e-4 x0=1e-4 normamps=9999
New Line.345575263 Phases=1 Bus1=node_539617383.3 Bus2=node_539617384.3 Switch=Y r1=1e-4 x1=1e-4 r0=1e-4 x0=1e-4 normamps=9999
New Line.345611779 Phases=1 Bus1=node_539709111.3 Bus2=node_539709112.3 Switch=Y r1=1e-4 x1=1e-4 r0=1e-4 x0=1e-4 normamps=9999
New Line.345085293 Phases=3 Bus1=node_539248312.1.2.3 Bus2=node_539248313.1.2.3 Switch=Y r1=1e-4 x1=1e-4 r0=1e-4 x0=1e-4 normamps=9999
New Line.345575047 Phases=3 Bus1=node_539616789.1.2.3 Bus2=node_539616790.1.2.3 Switch=Y r1=1e-4 x1=1e-4 r0=1e-4 x0=1e-4 normamps=9999
New Line.345176718 Phases=1 Bus1=node_539298889.2 Bus2=node_539298890.2 Switch=Y r1=1e-4 x1=1e-4 r0=1e-4 x0=1e-4 normamps=9999
New Line.345517775 Phases=1 Bus1=node_539468959.3 Bus2=node_539468960.3 Switch=Y r1=1e-4 x1=1e-4 r0=1e-4 x0=1e-4 normamps=9999
New Line.345176726 Phases=1 Bus1=node_539298915.1 Bus2=node_539298916.1 Switch=Y r1=1e-4 x1=1e-4 r0=1e-4 x0=1e-4 normamps=9999
New Line.345176733 Phases=1 Bus1=node_539298936.1 Bus2=node_539298937.1 Switch=Y r1=1e-4 x1=1e-4 r0=1e-4 x0=1e-4 normamps=9999
New Line.345407267 Phases=1 Bus1=node_539387815.3 Bus2=node_539387816.3 Switch=Y r1=1e-4 x1=1e-4 r0=1e-4 x0=1e-4 normamps=9999
New Line.345517762 Phases=1 Bus1=node_539468920.3 Bus2=node_539468921.3 Switch=Y r1=1e-4 x1=1e-4 r0=1e-4 x0=1e-4 normamps=9999
New Line.483139533 Phases=1 Bus1=node_753266697.2 Bus2=node_753266698.2 Switch=Y r1=1e-4 x1=1e-4 r0=1e-4 x0=1e-4 normamps=9999
New Line.479987848 Phases=1 Bus1=node_750042227.2 Bus2=node_750042228.2 Switch=Y r1=1e-4 x1=1e-4 r0=1e-4 x0=1e-4 normamps=9999
New Line.480709069 Phases=1 Bus1=node_750788911.2 Bus2=node_750788912.2 Switch=Y r1=1e-4 x1=1e-4 r0=1e-4 x0=1e-4 normamps=9999
New Line.511673097 Phases=1 Bus1=node_781808733.1 Bus2=node_781808734.1 Switch=Y r1=1e-4 x1=1e-4 r0=1e-4 x0=1e-4 normamps=9999
New Line.530493705 Phases=1 Bus1=node_800556327.1 Bus2=node_800556328.1 Switch=Y r1=1e-4 x1=1e-4 r0=1e-4 x0=1e-4 normamps=9999
New Line.589738005 Phases=1 Bus1=node_858134458.3 Bus2=node_858134532.3 Switch=Y r1=1e-4 x1=1e-4 r0=1e-4 x0=1e-4 normamps=9999
New Line.345084433 Phases=3 Bus1=node_539246076.1.2.3 Bus2=node_539246077.1.2.3 Switch=Y r1=1e-4 x1=1e-4 r0=1e-4 x0=1e-4 normamps=9999
New Line.345554352 Phases=3 Bus1=node_539574355.1.2.3 Bus2=node_539574356.1.2.3 Switch=Y r1=1e-4 x1=1e-4 r0=1e-4 x0=1e-4 normamps=9999
New Line.418914374 Phases=3 Bus1=100_418914393.1.2.3 Bus2=100_418914392.1.2.3 Switch=Y r1=1e-4 x1=1e-4 r0=1e-4 x0=1e-4 normamps=9999
New Line.418914383 Phases=3 Bus1=100_418914393.1.2.3 Bus2=100_418914392.1.2.3 Switch=Y r1=1e-4 x1=1e-4 r0=1e-4 x0=1e-4 normamps=9999
New Line.529944054 Phases=1 Bus1=node_800010944.2 Bus2=node_800010945.2 Switch=Y r1=1e-4 x1=1e-4 r0=1e-4 x0=1e-4 normamps=9999
New Line.534088118 Phases=1 Bus1=node_804168587.3 Bus2=node_804168588.3 Switch=Y r1=1e-4 x1=1e-4 r0=1e-4 x0=1e-4 normamps=9999
New Line.505503267 Phases=1 Bus1=node_775657203.3 Bus2=node_775657204.3 Switch=Y r1=1e-4 x1=1e-4 r0=1e-4 x0=1e-4 normamps=9999
New Line.353157887 Phases=1 Bus1=node_552193798.1 Bus2=node_552193799.1 Switch=Y r1=1e-4 x1=1e-4 r0=1e-4 x0=1e-4 normamps=9999
New Line.546179784 Phases=3 Bus1=100_546931076.1.2.3 Bus2=100_546931077.1.2.3 Switch=Y r1=1e-4 x1=1e-4 r0=1e-4 x0=1e-4 normamps=9999
New Line.546179759 Phases=3 Bus1=100_546931077.1.2.3 Bus2=segm_546179740.1.2.3 Switch=Y r1=1e-4 x1=1e-4 r0=1e-4 x0=1e-4 normamps=9999
New Line.546179746 Phases=3 Bus1=100_546931076.1.2.3 Bus2=segm_546179734.1.2.3 Switch=Y r1=1e-4 x1=1e-4 r0=1e-4 x0=1e-4 normamps=9999
New Line.353951495 Phases=3 Bus1=100_353951485.1.2.3 Bus2=100_353951464.1.2.3 Switch=Y r1=1e-4 x1=1e-4 r0=1e-4 x0=1e-4 normamps=9999
New Line.506644947 Phases=3 Bus1=100_506644960.1.2.3 Bus2=100_506644959.1.2.3 Switch=Y r1=1e-4 x1=1e-4 r0=1e-4 x0=1e-4 normamps=9999
New Line.506644922 Phases=3 Bus1=100_506644960.1.2.3 Bus2=segm_506644903.1.2.3 Switch=Y r1=1e-4 x1=1e-4 r0=1e-4 x0=1e-4 normamps=9999
New Line.506644909 Phases=3 Bus1=100_506644959.1.2.3 Bus2=segm_506644897.1.2.3 Switch=Y r1=1e-4 x1=1e-4 r0=1e-4 x0=1e-4 normamps=9999
New Line.530503274 Phases=1 Bus1=node_800576135.1 Bus2=node_800576136.1 Switch=Y r1=1e-4 x1=1e-4 r0=1e-4 x0=1e-4 normamps=9999
New Line.482036041 Phases=1 Bus1=node_752141856.2 Bus2=node_752141857.2 Switch=Y r1=1e-4 x1=1e-4 r0=1e-4 x0=1e-4 normamps=9999
New Line.653701429 Phases=1 Bus1=node_923510703.1 Bus2=node_923510704.1 Switch=Y r1=1e-4 x1=1e-4 r0=1e-4 x0=1e-4 normamps=9999
New Line.564467825 Phases=1 Bus1=node_832980230.1 Bus2=node_832980299.1 Switch=Y r1=1e-4 x1=1e-4 r0=1e-4 x0=1e-4 normamps=9999
New Line.518358894 Phases=1 Bus1=node_788309936.3 Bus2=node_788309937.3 Switch=Y r1=1e-4 x1=1e-4 r0=1e-4 x0=1e-4 normamps=9999
New Line.740393232 Phases=1 Bus1=node_1013960146.3 Bus2=node_1013960147.3 Switch=Y r1=1e-4 x1=1e-4 r0=1e-4 x0=1e-4 normamps=9999
New Line.1702305293 Phases=3 Bus1=segm_1702305283.1.2.3 Bus2=100_1702305345.1.2.3 Switch=Y r1=1e-4 x1=1e-4 r0=1e-4 x0=1e-4 normamps=9999
New Line.1130876820 Phases=3 Bus1=node_1400364271.1.2.3 Bus2=node_1400364272.1.2.3 Switch=Y r1=1e-4 x1=1e-4 r0=1e-4 x0=1e-4 normamps=9999
New Line.1702308659 Phases=3 Bus1=node_2061078462.1.2.3 Bus2=node_1400364384.1.2.3 Switch=Y r1=1e-4 x1=1e-4 r0=1e-4 x0=1e-4 normamps=9999
New Line.1130877057 Phases=3 Bus1=node_1400364560.1.2.3 Bus2=node_1400364561.1.2.3 Switch=Y r1=1e-4 x1=1e-4 r0=1e-4 x0=1e-4 normamps=9999
...
